OPT_V10/Two_days_MYC3_SOS/powerflow_results_t6.txt
Pandapower Network Debug Info
==================================================

BUS:
       vm_pu  va_degree      p_mw    q_mvar
0   0.992893   0.159559  0.000963  0.001038
1   0.988555   0.246258  0.001474  0.001830
2   0.984581   0.343645  0.001803  0.003234
3   0.988941   0.280014  0.002139  0.004760
4   0.999890   0.000751  0.010612  0.008433
5   0.999878   0.000818  0.009791  0.008820
6   0.999868   0.000881  0.011312  0.011050
7   0.999932   0.000592  0.000000  0.000000
8   0.999932   0.000599  0.000000  0.000000
9   1.000000   0.000000 -0.038247 -0.044270
10  1.000000   0.000006  0.000000  0.000000
--------------------------------------------------

LINE:
   p_from_mw  q_from_mvar   p_to_mw  q_to_mvar         pl_mw       ql_mvar  i_from_ka   i_to_ka      i_ka  vm_from_pu  va_from_degree  vm_to_pu  va_to_degree  loading_percent
0   0.038237     0.040270 -0.038234  -0.040268  3.016352e-06  2.351899e-06   0.002137  0.002137  0.002137    1.000000        0.000006  0.999932      0.000592         0.929314
1   0.031716     0.028305 -0.031715  -0.028304  1.397579e-06  1.089715e-06   0.001636  0.001636  0.001636    0.999932        0.000592  0.999890      0.000751         0.711442
2   0.006508     0.010963 -0.006432  -0.010904  7.603751e-05  5.928770e-05   0.018403  0.018403  0.018403    0.999932        0.000599  0.992893      0.159559         8.001516
3  -0.021103    -0.019870  0.021103   0.019870  2.906142e-07  2.265967e-07   0.001116  0.001116  0.001116    0.999878        0.000818  0.999890      0.000751         0.485123
4  -0.011312    -0.011050  0.011312   0.011050  1.223259e-07  9.537952e-08   0.000609  0.000609  0.000609    0.999868        0.000881  0.999878      0.000818         0.264664
5  -0.003289    -0.005075  0.003311   0.005092  2.214027e-05  1.726313e-05   0.008830  0.008830  0.008830    0.988555        0.246258  0.992893      0.159559         3.839014
6  -0.002139    -0.004760  0.002158   0.004774  1.859230e-05  1.449672e-05   0.007617  0.007617  0.007617    0.988941        0.280014  0.992893      0.159559         3.311558
7  -0.001803    -0.003234  0.001815   0.003244  1.279410e-05  9.975770e-06   0.005428  0.005428  0.005428    0.984581        0.343645  0.988555      0.246258         2.360096
--------------------------------------------------

TRAFO:
    p_hv_mw  q_hv_mvar   p_lv_mw  q_lv_mvar    pl_mw  ql_mvar   i_hv_ka   i_lv_ka  vm_hv_pu  va_hv_degree  vm_lv_pu  va_lv_degree  loading_percent
0  0.006518   0.011963 -0.006508  -0.010963  0.00001    0.001  0.000524  0.018403  0.999932      0.000592  0.999932      0.000599         0.136245
1  0.038247   0.044270 -0.038237  -0.040270  0.00001    0.004  0.000483  0.002137  1.000000      0.000000  1.000000      0.000006         0.146260
--------------------------------------------------
